8
	Energy:       1.1069072
C         -1.17615        1.20257        0.52954
O         -2.33586        1.44832        0.81907
C         -0.16945        0.98924        1.62007
H          0.83492        0.77641        1.19782
H         -0.48023        0.13019        2.25084
H         -0.10510        1.90051        2.25084
O         -0.81635        1.12633       -0.76979
H          0.09445        0.93332       -1.03246
